%mem=1900mb
%nprocs=2
#p nmr=giao hf/sto-3g scrf=(solvent=water)

 test_opt.log

0  1
C          -2.50098        -0.32012        -0.25537
O          -2.76482         0.74238        -0.79722
C          -3.54240        -1.28056         0.25022
H          -3.50074        -2.24804        -0.26801
H          -3.45269        -1.47177         1.32694
H          -4.54811        -0.86390         0.07619
N          -1.18539        -0.75035        -0.08428
H          -0.95968        -1.62795         0.40349
C          -0.01824         0.06097        -0.52030
H          -0.05851         0.18734        -1.63524
C          -0.03711         1.46815         0.15097
C           1.21907        -0.78785        -0.14053
H          -1.06038         1.89535        -0.08286
C           0.08755         1.37886         1.67073
C           0.98274         2.42846        -0.46138
O           1.10227        -1.89706         0.36976
H           1.05377         0.96977         1.98629
H          -0.01640         2.36708         2.13365
H          -0.69268         0.73818         2.09946
H           0.90036         2.46491        -1.55409
H           0.80132         3.45106        -0.10065
H           2.01852         2.19036        -0.19355
N           2.46949        -0.27127        -0.43393
H           2.60072         0.68163        -0.76385
C           3.68254        -1.04360        -0.09109
H           4.58641        -0.49449        -0.38974
H           3.72938        -1.25260         0.99392
H           3.67140        -2.02409        -0.60421

