# pm6 geom=connectivity sp

lol

0 1
 N                 -2.44862697   -2.19221154   -0.39087031
 H                 -1.54791800   -2.62601473   -0.41407403
 C                 -2.57362248   -0.80253583    0.00000000
 H                 -3.01636809   -0.23312084   -0.81721652
 C                 -3.46024548   -0.65641383    1.23214100
 C                 -1.21478354   -0.20208048    0.33090113
 H                 -3.81465394   -1.63889174    1.54396065
 H                 -2.88702087   -0.20386319    2.04128361
 C                 -4.66588534    0.22479691    0.93822768
 O                 -0.17682847   -0.90824764    0.24401927
 O                 -4.82376812    0.71376619   -0.17820516
 N                 -5.51840818    0.42680056    1.94551385
 H                 -6.33512518    1.00385511    1.80380515
 H                 -5.34276694    0.00164824    2.84467857

 1 2 1.0 3 1.0
 2
 3 4 1.0 5 1.0 6 1.0
 4
 5 7 1.0 8 1.0 9 1.0
 6 10 2.0
 7
 8
 9 11 2.0 12 1.5
 10
 11
 12 13 1.0 14 1.0
 13
 14

