%mem = 3900mb
%nprocs= 1
#t opt=modredundant pm6 

No Title

 0 1
C -8.2059 -4.5733 0.0
O -8.51703513 -5.15038697 1.03757993
C -8.5982 -5.1117 -1.3885
H -9.19986252 -4.38648224 -1.89530804
H -7.71388574 -5.3033964 -1.95961155
H -9.15335181 -6.01942139 -1.27528038
N -7.47955545676 -3.38566363364 -0.148133270384
H -7.20835457524 -2.88828421523 -0.972186703823
C -7.11044498393 -2.87908938288 1.15829010846
H -8.01096587999 -2.68371709718 1.74052007657
C -6.25009091697 -3.88584926233 1.91449699251
C -6.31737050684 -1.58541381513 1.04029929552
H -6.78567652441 -4.83144860259 1.99869697792
C -4.94408851923 -4.10728914611 1.15888618427
C -5.94584484982 -3.34845251985 3.30886540201
O -6.06795034275 -1.10154769615 -0.0942642308382
H -4.40768880029 -3.16215022791 1.07468623593
H -4.32874190232 -4.82682897311 1.69898806789
H -5.16103806862 -4.49138535736 0.16213984687
H -6.87904597918 -3.18998329068 3.84934915261
H -5.33089633168 -4.06769200961 3.84982138217
H -5.40982140583 -2.40302938811 3.22547302338
N -5.96074212049 -1.09597021785 2.30254378813
H -6.15894636075 -1.48047926811 3.20413563442
C -5.19476372186 0.153505800319 2.18858423382
H -4.93630477624 0.50382378018 3.16601775326
H -4.30220322287 -0.0253438410066 1.62622442009
H -5.78823426635 0.891519998655 1.69056038352

D 1 3 6 7 F
D 3 6 7 9 F
D 6 7 9 12 F
D 7 9 12 23 F
D 9 12 23 25 F
D 12 23 25 26 F
D 7 9 11 14 F


