%chk=leu.chk
# hf/3-21g geom=connectivity

Title Card Required

0 1
 N                  0.48489817   -3.51924734    0.00000000
 H                  1.48445817   -3.54891334    0.00000000
 C                 -0.20205583   -2.24343534    0.00000000
 H                 -0.82688883   -2.16663234   -0.88982300
 C                 -1.08867883   -2.09731334    1.23214100
 C                  0.78842317   -1.08782434    0.00000000
 H                 -1.83291383   -2.89363534    1.24137300
 H                 -0.47590583   -2.16296134    2.13119600
 C                 -1.79227383   -0.74484634    1.19457400
 O                  2.02534917   -1.31930934    0.00000000
 H                 -1.04863583    0.05203866    1.18579100
 C                 -2.65019783   -0.65294534   -0.06286200
 C                 -2.67889783   -0.59872334    2.42671600
 H                 -3.39442183   -1.44928734   -0.05456500
 H                 -3.15334283    0.31359366   -0.09020700
 H                 -2.01690383   -0.75736234   -0.94384800
 H                 -2.06612383   -0.66437234    3.32577000
 H                 -3.18205383    0.36783666    2.40035800
 H                 -3.42313283   -1.39504534    2.43594700
 ?s                 0.37322217    0.09120466    0.00000000
 ?s                -0.17194183   -4.58276134    0.00000000

 1 2 1.0 3 1.0 21 1.0
 2
 3 4 1.0 5 1.0 6 1.0
 4
 5 7 1.0 8 1.0 9 1.0
 6 10 2.0 20 1.0
 7
 8
 9 11 1.0 12 1.0 13 1.0
 10
 11
 12 14 1.0 15 1.0 16 1.0
 13 17 1.0 18 1.0 19 1.0
 14
 15
 16
 17
 18
 19
 20
 21

