# pm6 geom=connectivity sp

14

0 1
 N                 -1.01461538   -2.43708945    0.26503389
 H                 -0.09058992   -2.06850009    0.16345093
 C                 -2.16349920   -1.59980234   -0.01535567
 H                 -2.75198747   -2.04607429   -0.81699328
 C                 -3.05012220   -1.45368034    1.21678533
 C                 -1.73288871   -0.20513069   -0.44657606
 H                 -3.12490553   -0.40072397    1.48843059
 C                 -4.44077883   -1.99913665    0.90990248
 O                 -2.47977107   -2.18677271    2.30406450
 O                 -0.50971395    0.08178497   -0.51794930
 H                 -4.36685053   -3.05224231    0.63860459
 H                 -5.07493146   -1.89493067    1.79029592
 H                 -4.87594471   -1.44065717    0.08114894
 H                 -3.03790803   -2.09478752    3.07970751

 1 2 1.0 3 1.0
 2
 3 4 1.0 5 1.0 6 1.0
 4
 5 7 1.0 8 1.0 9 1.0
 6 10 2.0
 7
 8 11 1.0 12 1.0 13 1.0
 9 14 1.0
 10
 11
 12
 13
 14

